Version 4
SHEET 1 4068 744
WIRE -1072 -416 -1072 -464
WIRE -944 -416 -944 -464
WIRE -1072 -304 -1072 -336
WIRE -944 -304 -944 -336
WIRE 2320 -208 2192 -208
WIRE 2448 -208 2400 -208
WIRE 2496 -208 2448 -208
WIRE 2720 -208 2576 -208
WIRE 2192 -160 2192 -208
WIRE -1280 -80 -1280 -144
WIRE -1200 -80 -1200 -144
WIRE 2512 -64 2512 -96
WIRE -464 -32 -496 -32
WIRE -352 -32 -400 -32
WIRE 2448 -16 2448 -208
WIRE 2480 -16 2448 -16
WIRE 2720 16 2720 -208
WIRE 2720 16 2624 16
WIRE 2832 16 2720 16
WIRE 3104 16 2912 16
WIRE -1280 32 -1280 -16
WIRE -1200 32 -1200 -16
WIRE -496 48 -496 -32
WIRE -496 48 -768 48
WIRE -464 48 -496 48
WIRE -352 48 -352 -32
WIRE -352 48 -384 48
WIRE -320 48 -352 48
WIRE 96 48 -320 48
WIRE 256 48 96 48
WIRE 464 48 336 48
WIRE 1008 48 864 48
WIRE 1632 48 1408 48
WIRE 1728 48 1632 48
WIRE 1888 48 1792 48
WIRE 2032 48 1888 48
WIRE 2144 48 2032 48
WIRE 2480 48 2144 48
WIRE 3104 96 3104 16
WIRE 464 112 464 48
WIRE 624 112 464 112
WIRE 864 112 864 48
WIRE 864 112 704 112
WIRE 1008 112 1008 48
WIRE 1168 112 1008 112
WIRE 1408 112 1408 48
WIRE 1408 112 1248 112
WIRE -320 128 -320 112
WIRE 1632 128 1632 48
WIRE 1888 128 1888 48
WIRE 2512 144 2512 96
WIRE -768 176 -768 48
WIRE 464 208 464 112
WIRE 624 208 464 208
WIRE 768 208 688 208
WIRE 864 208 864 112
WIRE 864 208 768 208
WIRE 1008 208 1008 112
WIRE 1168 208 1008 208
WIRE 1312 208 1232 208
WIRE 1408 208 1408 112
WIRE 1408 208 1312 208
WIRE 2032 208 2032 48
WIRE 2144 224 2144 48
WIRE 3104 224 3104 176
WIRE 96 240 96 48
WIRE 768 240 768 208
WIRE 864 240 864 208
WIRE 1312 240 1312 208
WIRE 1408 240 1408 208
WIRE -768 336 -768 256
WIRE 2368 352 2368 288
WIRE -128 368 -128 320
WIRE -16 368 -16 320
WIRE 96 368 96 304
WIRE 768 368 768 320
WIRE 864 368 864 304
WIRE 1312 368 1312 320
WIRE 1408 368 1408 304
WIRE 2032 368 2032 288
WIRE 2144 368 2144 288
WIRE 2368 480 2368 416
FLAG -768 336 0
FLAG -16 368 0
FLAG -128 368 0
FLAG 2032 368 0
FLAG 2144 368 0
FLAG -1280 32 0
FLAG -1200 32 0
FLAG -320 128 0
FLAG -1072 -304 0
FLAG -944 -304 0
FLAG -1072 -464 +2.5V
FLAG -944 -464 -2.5V
FLAG 2512 144 -2.5V
FLAG 2512 -96 +2.5V
FLAG 2192 -160 0
FLAG 2368 480 0
FLAG 768 368 0
FLAG 864 368 0
FLAG 96 368 0
FLAG 1312 368 0
FLAG 1408 368 0
FLAG 3104 224 0
SYMBOL voltage -768 160 R0
WINDOW 3 24 152 Left 2
WINDOW 123 24 124 Left 2
WINDOW 39 0 0 Left 2
SYMATTR Value SINE(0.2 1 400MEG)
SYMATTR Value2 AC 10
SYMATTR InstName V1
SYMBOL res 352 32 R90
WINDOW 0 0 56 VBottom 2
WINDOW 3 32 56 VTop 2
SYMATTR InstName R1
SYMATTR Value 33
SYMBOL res -32 224 R0
SYMATTR InstName R3
SYMATTR Value 50
SYMBOL Misc\\neonbulb -128 272 R0
SYMATTR InstName U1
SYMBOL res 2016 192 R0
SYMATTR InstName R5
SYMATTR Value 1Meg
SYMBOL cap 2128 224 R0
SYMATTR InstName C1
SYMATTR Value 5p
SYMBOL res -1184 -160 R90
WINDOW 0 0 56 VBottom 2
WINDOW 3 32 56 VTop 2
SYMATTR InstName R6
SYMATTR Value 330
SYMBOL cap -1296 -80 R0
SYMATTR InstName C4
SYMATTR Value 15p
SYMBOL res -368 32 R90
WINDOW 0 0 56 VBottom 2
WINDOW 3 32 56 VTop 2
SYMATTR InstName R7
SYMATTR Value 9Meg
SYMBOL cap -400 -48 R90
WINDOW 0 0 32 VBottom 2
WINDOW 3 32 32 VTop 2
SYMATTR InstName C5
SYMATTR Value 12.78p
SYMBOL cap -1216 -80 R0
SYMATTR InstName C7
SYMATTR Value 100p
SYMBOL cap -336 48 R0
SYMATTR InstName C6
SYMATTR Value 100p
SYMBOL Opamps\\LTC6268-10 2512 16 R0
SYMATTR InstName U2
SYMBOL voltage -1072 -432 R0
WINDOW 123 0 0 Left 2
WINDOW 39 0 0 Left 2
SYMATTR InstName V2
SYMATTR Value 2.5
SYMBOL voltage -944 -320 R180
WINDOW 0 24 96 Left 2
WINDOW 3 24 16 Left 2
WINDOW 123 0 0 Left 2
WINDOW 39 0 0 Left 2
SYMATTR InstName V3
SYMATTR Value 2.5
SYMBOL res 2592 -224 R90
WINDOW 0 0 56 VBottom 2
WINDOW 3 32 56 VTop 2
SYMATTR InstName R10
SYMATTR Value 1620
SYMBOL res 2304 -192 R270
WINDOW 0 32 56 VTop 2
WINDOW 3 0 56 VBottom 2
SYMATTR InstName R11
SYMATTR Value 180
SYMBOL cap 1792 32 R90
WINDOW 0 0 32 VBottom 2
WINDOW 3 32 32 VTop 2
SYMATTR InstName C10
SYMATTR Value 22n
SYMBOL TVSdiode 2352 352 R0
SYMATTR InstName D1
SYMBOL res 2352 192 R0
SYMATTR InstName R16
SYMATTR Value 3.3k
SYMBOL res 720 96 R90
WINDOW 0 0 56 VBottom 2
WINDOW 3 32 56 VTop 2
SYMATTR InstName R4
SYMATTR Value 900k
SYMBOL cap 688 192 R90
WINDOW 0 0 32 VBottom 2
WINDOW 3 32 32 VTop 2
SYMATTR InstName C2
SYMATTR Value 5.6p
SYMBOL res 752 224 R0
SYMATTR InstName R8
SYMATTR Value 111.2k
SYMBOL cap 848 240 R0
SYMATTR InstName C3
SYMATTR Value 45.4p
SYMBOL cap 80 240 R0
SYMATTR InstName C8
SYMATTR Value 10p
SYMBOL res 1264 96 R90
WINDOW 0 0 56 VBottom 2
WINDOW 3 32 56 VTop 2
SYMATTR InstName R17
SYMATTR Value 990k
SYMBOL cap 1232 192 R90
WINDOW 0 0 32 VBottom 2
WINDOW 3 32 32 VTop 2
SYMATTR InstName C9
SYMATTR Value 5p
SYMBOL res 1296 224 R0
SYMATTR InstName R18
SYMATTR Value 10.1k
SYMBOL cap 1392 240 R0
SYMATTR InstName C11
SYMATTR Value 490p
SYMBOL res 2928 0 R90
WINDOW 0 0 56 VBottom 2
WINDOW 3 32 56 VTop 2
SYMATTR InstName R12
SYMATTR Value 50
SYMBOL res 3088 80 R0
SYMATTR InstName R2
SYMATTR Value 50
TEXT 152 -16 Left 2 ;ESD Resistor
TEXT -536 400 Left 2 !;ac dec 100 1 1G
TEXT -1280 80 Left 2 ;1x Probe
TEXT -552 104 Left 2 ;10x Probe
TEXT -1312 112 Left 2 ;Simple Model (no TL)
TEXT -616 136 Left 2 ;Simple Model (no TL)
TEXT 592 -80 Left 2 ;DPDT Relay 1
TEXT 1144 -72 Left 2 ;DPDT Relay 2
TEXT -128 440 Left 2 ;50 Ohm Termination
TEXT -184 472 Left 2 ;Switched in by SPDT Relay 1
TEXT 600 -48 Left 2 ;0dB / -20dB
TEXT 1152 -40 Left 2 ;0dB / -40dB
TEXT 2568 168 Left 2 ;+20dB
TEXT 1688 -48 Left 2 ;SPDT Relay 2
TEXT 1680 -16 Left 2 ;AC/DC Coupling
TEXT 72 -448 Left 2 ;Parasitic Inductance and the Parasitic Capacitance of 0402 size resistors can be ignored for most designs up to 1 GHz
TEXT 1544 -448 Left 2 ;"Hopefully"
TEXT 2416 392 Left 2 ;BAV99
TEXT 520 680 Left 2 ;Add Resistor footprint
TEXT 792 680 Left 2 ;In series with all caps for damping (see cpavlina's design)
TEXT 480 448 Left 2 ;If enabled, input cap. is 15.04pF
TEXT 1016 448 Left 2 ;If enabled, input cap. is 14.95pF
TEXT 464 528 Left 2 ;If both enabled, input cap. is 15.04pF
TEXT 1008 528 Left 2 ;If none enabled, input cap. is 15pF
TEXT -536 432 Left 2 !.tran 10n
RECTANGLE Normal -224 192 -640 -96 2
RECTANGLE Normal 928 416 416 0 2
RECTANGLE Normal 1488 416 960 0 2
RECTANGLE Normal -64 416 32 0 2
RECTANGLE Normal 1920 160 1600 0 2
