Version 4
SHEET 1 1508 760
WIRE 160 80 160 -16
WIRE -464 144 -464 96
WIRE 0 144 -176 144
WIRE 112 144 0 144
WIRE 992 176 992 160
WIRE 1024 176 992 176
WIRE 992 192 992 176
WIRE 1024 192 1024 176
WIRE 160 208 160 176
WIRE 976 208 160 208
WIRE 1152 224 1040 224
WIRE 1312 224 1152 224
WIRE 1440 224 1312 224
WIRE 944 240 912 240
WIRE 976 240 944 240
WIRE 1152 240 1152 224
WIRE 1312 240 1312 224
WIRE -464 256 -464 224
WIRE -352 256 -464 256
WIRE -464 272 -464 256
WIRE -352 288 -352 256
WIRE 160 288 160 208
WIRE 992 288 992 256
WIRE 544 304 544 272
WIRE -176 320 -176 144
WIRE 736 320 576 320
WIRE 784 320 736 320
WIRE 912 320 912 240
WIRE 912 320 864 320
WIRE 272 336 224 336
WIRE 320 336 272 336
WIRE 448 336 400 336
WIRE 512 336 448 336
WIRE 944 336 944 240
WIRE 1152 336 1152 320
WIRE 1152 336 944 336
WIRE 624 352 576 352
WIRE 736 352 736 320
WIRE 1152 352 1152 336
WIRE 1312 352 1312 320
WIRE 272 368 272 336
WIRE 448 368 448 336
WIRE -464 400 -464 352
WIRE 544 400 544 368
WIRE 160 416 160 384
WIRE 272 464 272 432
WIRE 448 464 448 432
WIRE 624 464 624 352
WIRE 624 464 448 464
WIRE 736 464 736 416
WIRE 1152 464 1152 432
WIRE 624 496 624 464
WIRE 160 544 160 496
WIRE 0 608 0 144
WIRE 304 608 0 608
WIRE 624 608 624 576
WIRE 624 608 384 608
WIRE 624 624 624 608
WIRE 624 720 624 688
FLAG 160 -16 V+
FLAG 160 544 V-
FLAG 544 272 V-
FLAG 544 400 V+
FLAG 272 464 0
FLAG 624 720 0
FLAG 736 464 0
FLAG 992 288 V+
FLAG 992 160 V-
FLAG 1152 464 0
FLAG -176 320 0
FLAG 1440 224 OUT
FLAG -352 288 0
FLAG -464 96 V+
FLAG -464 400 V-
FLAG 1312 352 0
SYMBOL njf 112 80 R0
SYMATTR InstName J1
SYMATTR Value 2N5486
SYMBOL npn 224 288 M0
SYMATTR InstName Q1
SYMATTR Value 2N3904
SYMBOL res 144 400 R0
SYMATTR InstName R1
SYMATTR Value 50
SYMBOL Opamps\\OP07 544 400 R180
SYMATTR InstName U1
SYMBOL res 416 320 R90
WINDOW 0 0 56 VBottom 2
WINDOW 3 32 56 VTop 2
SYMATTR InstName R2
SYMATTR Value 3k
SYMBOL cap 256 368 R0
SYMATTR InstName C1
SYMATTR Value 300p
SYMBOL cap 432 368 R0
SYMATTR InstName C2
SYMATTR Value 0.01µ
SYMBOL res 608 480 R0
SYMATTR InstName R3
SYMATTR Value 10k
SYMBOL cap 608 624 R0
SYMATTR InstName C3
SYMATTR Value 0.1µ
SYMBOL res 400 592 R90
WINDOW 0 0 56 VBottom 2
WINDOW 3 32 56 VTop 2
SYMATTR InstName R4
SYMATTR Value 10Meg
SYMBOL res 880 304 R90
WINDOW 0 0 56 VBottom 2
WINDOW 3 32 56 VTop 2
SYMATTR InstName R5
SYMATTR Value 10Meg
SYMBOL cap 720 352 R0
SYMATTR InstName C4
SYMATTR Value 0.1µ
SYMBOL res 1136 224 R0
SYMATTR InstName R6
SYMATTR Value 430
SYMBOL res 1136 336 R0
SYMATTR InstName R7
SYMATTR Value 100
SYMBOL voltage -464 128 R0
WINDOW 123 0 0 Left 0
WINDOW 39 0 0 Left 0
SYMATTR InstName V2
SYMATTR Value 5
SYMBOL voltage -464 256 R0
WINDOW 0 24 96 Left 2
WINDOW 3 24 16 Left 2
WINDOW 123 0 0 Left 0
WINDOW 39 0 0 Left 0
SYMATTR InstName V3
SYMATTR Value 5
SYMBOL Opamps\\ADA4860 1008 224 M180
SYMATTR InstName U2
SYMBOL res 1296 224 R0
SYMATTR InstName R8
SYMATTR Value 50
TEXT -520 744 Left 2 !;ac dec 20 1k 400meg
TEXT -512 712 Left 2 !.tran 10n
