Version 4
SHEET 1 1376 684
WIRE 208 -32 192 -32
WIRE 304 -32 288 -32
WIRE 192 16 192 -32
WIRE 304 16 304 -32
WIRE -32 80 -352 80
WIRE 48 80 -32 80
WIRE 112 80 48 80
WIRE 128 80 112 80
WIRE 416 80 368 80
WIRE 576 80 416 80
WIRE 704 80 576 80
WIRE 816 80 704 80
WIRE -352 96 -352 80
WIRE -32 96 -32 80
WIRE 48 96 48 80
WIRE 416 96 416 80
WIRE 704 96 704 80
WIRE 816 96 816 80
WIRE 576 128 576 80
WIRE 112 176 112 80
WIRE 128 176 112 176
WIRE 416 176 416 160
WIRE -352 192 -352 176
WIRE -32 192 -32 160
WIRE 48 192 48 160
WIRE 704 192 704 160
WIRE 816 192 816 176
WIRE 112 272 112 176
WIRE 128 272 112 272
WIRE 416 272 416 256
WIRE 416 272 368 272
WIRE 576 272 576 208
WIRE 576 272 416 272
WIRE 128 368 112 368
WIRE 384 368 368 368
WIRE 480 368 464 368
WIRE 576 368 576 272
WIRE 576 368 544 368
WIRE 576 400 576 368
WIRE 192 448 192 432
WIRE 304 448 304 432
WIRE 576 496 576 480
FLAG 192 448 0
FLAG 304 448 0
FLAG -352 192 0
FLAG 112 368 0
FLAG 576 496 0
FLAG 704 192 0
FLAG 816 192 0
FLAG 816 80 OUT
FLAG -352 80 IN
FLAG 48 192 0
FLAG -32 192 0
SYMBOL PowerProducts\\LTC3536 256 224 R0
SYMATTR InstName U1
SYMBOL voltage -352 80 R0
WINDOW 123 24 138 Left 2
WINDOW 39 24 117 Left 2
SYMATTR Value 5
SYMATTR InstName V1
SYMBOL ind 192 -16 R270
WINDOW 0 32 56 VTop 2
WINDOW 3 5 56 VBottom 2
SYMATTR InstName L1
SYMATTR Value 4.7µ
SYMBOL res 560 112 R0
SYMATTR InstName R1
SYMATTR Value 1.8Meg
SYMBOL res 560 384 R0
SYMATTR InstName R2
SYMATTR Value 220K
SYMBOL polcap 688 96 R0
WINDOW 3 24 56 Left 2
SYMATTR Value 22µ
SYMATTR InstName C1
SYMATTR Description Capacitor
SYMATTR Type cap
SYMATTR SpiceLine V=6.3 Irms=2.1 Rser=0.028 Lser=0 mfg="KEMET" pn="A700V226M006ATE028" type="Al electrolytic"
SYMBOL cap -48 96 R0
SYMATTR InstName C2
SYMATTR Value 10µ
SYMATTR SpiceLine Rser=5m
SYMBOL cap 32 96 R0
SYMATTR InstName C3
SYMATTR Value 1µ
SYMATTR SpiceLine Rser=1m
SYMBOL res 400 160 R0
SYMATTR InstName R3
SYMATTR Value 6.49K
SYMBOL cap 400 96 R0
SYMATTR InstName C4
SYMATTR Value 47p
SYMBOL cap 544 352 R90
WINDOW 0 0 32 VBottom 2
WINDOW 3 32 32 VTop 2
SYMATTR InstName C5
SYMATTR Value 220p
SYMBOL res 480 352 R90
WINDOW 0 0 56 VBottom 2
WINDOW 3 32 56 VTop 2
SYMATTR InstName R4
SYMATTR Value 49.9K
SYMBOL res 800 80 R0
SYMATTR InstName Rload
SYMATTR Value 22
TEXT 720 464 Left 2 !.tran 2m startup
TEXT 248 -80 Bottom 2 ;LTC3536 - 1A Low Noise, Buck-Boost DC/DC Converter\nInput: 1.8V to 5.5V     Output: 3.3V @ 1.0A
